!-Generator IDFEditor 1.51
!-Option SortedOrder

!-NOTE: All comments with '!-' are ignored by the IDFEditor and are generated automatically.
!-      Use '!' comments if they need to be retained when using the IDFEditor.


!-   ===========  ALL OBJECTS IN CLASS: VERSION ===========

Version,
    9.4.0.001;               !- Version Identifier


!-   ===========  ALL OBJECTS IN CLASS: SIMULATIONCONTROL ===========

SimulationControl,
    Yes,                     !- Do Zone Sizing Calculation
    Yes,                     !- Do System Sizing Calculation
    No,                      !- Do Plant Sizing Calculation
    No,                      !- Run Simulation for Sizing Periods
    Yes,                     !- Run Simulation for Weather File Run Periods
    ,                        !- Do HVAC Sizing Simulation for Sizing Periods
    ;                        !- Maximum Number of HVAC Sizing Simulation Passes


!-   ===========  ALL OBJECTS IN CLASS: BUILDING ===========

Building,
    Building,                !- Name
    0,                       !- North Axis {deg}
    Suburbs,                 !- Terrain
    0.04,                    !- Loads Convergence Tolerance Value {W}
    0.4,                     !- Temperature Convergence Tolerance Value {deltaC}
    FullExterior,            !- Solar Distribution
    25,                      !- Maximum Number of Warmup Days
    6;                       !- Minimum Number of Warmup Days


!-   ===========  ALL OBJECTS IN CLASS: SHADOWCALCULATION ===========

ShadowCalculation,
    PolygonClipping,         !- Shading Calculation Method
    Periodic,                !- Shading Calculation Update Frequency Method
    20,                      !- Shading Calculation Update Frequency
    15000,                   !- Maximum Figures in Shadow Overlap Calculations
    SutherlandHodgman,       !- Polygon Clipping Algorithm
    ,                        !- Pixel Counting Resolution
    SimpleSkyDiffuseModeling;!- Sky Diffuse Modeling Algorithm


!-   ===========  ALL OBJECTS IN CLASS: SURFACECONVECTIONALGORITHM:INSIDE ===========

SurfaceConvectionAlgorithm:Inside,
    TARP;                    !- Algorithm


!-   ===========  ALL OBJECTS IN CLASS: SURFACECONVECTIONALGORITHM:OUTSIDE ===========

SurfaceConvectionAlgorithm:Outside,
    DOE-2;                   !- Algorithm


!-   ===========  ALL OBJECTS IN CLASS: HEATBALANCEALGORITHM ===========

HeatBalanceAlgorithm,
    ConductionTransferFunction,  !- Algorithm
    2000,                    !- Surface Temperature Upper Limit {C}
    0.00000001,              !- Minimum Surface Convection Heat Transfer Coefficient Value {W/m2-K}
    1000;                    !- Maximum Surface Convection Heat Transfer Coefficient Value {W/m2-K}


!-   ===========  ALL OBJECTS IN CLASS: ZONECAPACITANCEMULTIPLIER:RESEARCHSPECIAL ===========

ZoneCapacitanceMultiplier:ResearchSpecial,
    All,                     !- Name
    ,                        !- Zone or ZoneList Name
    1,                       !- Temperature Capacity Multiplier
    1.0,                     !- Humidity Capacity Multiplier
    1.0,                     !- Carbon Dioxide Capacity Multiplier
    1.0;                     !- Generic Contaminant Capacity Multiplier


!-   ===========  ALL OBJECTS IN CLASS: TIMESTEP ===========

Timestep,
    2;                       !- Number of Timesteps per Hour


!-   ===========  ALL OBJECTS IN CLASS: CONVERGENCELIMITS ===========

ConvergenceLimits,
    1,                       !- Minimum System Timestep {minutes}
    25;                      !- Maximum HVAC Iterations


!-   ===========  ALL OBJECTS IN CLASS: SITE:LOCATION ===========

! Hourly weather file: C:\ProgramData\DesignBuilder\Weather Data\FRA_PARIS_IWEC.epw
Site:Location,
    Sans titre (01-01:31-12)  (01-01:31-12),  !- Name
    48.72,                   !- Latitude {deg}
    2.38,                    !- Longitude {deg}
    1,                       !- Time Zone {hr}
    90;                      !- Elevation {m}


!-   ===========  ALL OBJECTS IN CLASS: SIZINGPERIOD:DESIGNDAY ===========

SizingPeriod:DesignDay,
    Summer Design Day in Sans titre (01-01:31-12) Juin,  !- Name
    6,                       !- Month
    15,                      !- Day of Month
    SummerDesignDay,         !- Day Type
    31.4,                    !- Maximum Dry-Bulb Temperature {C}
    13.1,                    !- Daily Dry-Bulb Temperature Range {deltaC}
    ,                        !- Dry-Bulb Temperature Range Modifier Type
    ,                        !- Dry-Bulb Temperature Range Modifier Day Schedule Name
    WetBulb,                 !- Humidity Condition Type
    20.9,                    !- Wetbulb or DewPoint at Maximum Dry-Bulb {C}
    ,                        !- Humidity Condition Day Schedule Name
    ,                        !- Humidity Ratio at Maximum Dry-Bulb {kgWater/kgDryAir}
    ,                        !- Enthalpy at Maximum Dry-Bulb {J/kg}
    ,                        !- Daily Wet-Bulb Temperature Range {deltaC}
    100248.5,                !- Barometric Pressure {Pa}
    0,                       !- Wind Speed {m/s}
    0,                       !- Wind Direction {deg}
    No,                      !- Rain Indicator
    No,                      !- Snow Indicator
    Yes,                     !- Daylight Saving Time Indicator
    ASHRAEClearSky,          !- Solar Model Indicator
    ,                        !- Beam Solar Day Schedule Name
    ,                        !- Diffuse Solar Day Schedule Name
    ,                        !- ASHRAE Clear Sky Optical Depth for Beam Irradiance (taub) {dimensionless}
    ,                        !- ASHRAE Clear Sky Optical Depth for Diffuse Irradiance (taud) {dimensionless}
    0.98;                    !- Sky Clearness

SizingPeriod:DesignDay,
    Summer Design Day in Sans titre (01-01:31-12) Juil,  !- Name
    7,                       !- Month
    15,                      !- Day of Month
    SummerDesignDay,         !- Day Type
    33.8,                    !- Maximum Dry-Bulb Temperature {C}
    13.6,                    !- Daily Dry-Bulb Temperature Range {deltaC}
    ,                        !- Dry-Bulb Temperature Range Modifier Type
    ,                        !- Dry-Bulb Temperature Range Modifier Day Schedule Name
    WetBulb,                 !- Humidity Condition Type
    20.9,                    !- Wetbulb or DewPoint at Maximum Dry-Bulb {C}
    ,                        !- Humidity Condition Day Schedule Name
    ,                        !- Humidity Ratio at Maximum Dry-Bulb {kgWater/kgDryAir}
    ,                        !- Enthalpy at Maximum Dry-Bulb {J/kg}
    ,                        !- Daily Wet-Bulb Temperature Range {deltaC}
    100248.5,                !- Barometric Pressure {Pa}
    0,                       !- Wind Speed {m/s}
    0,                       !- Wind Direction {deg}
    No,                      !- Rain Indicator
    No,                      !- Snow Indicator
    Yes,                     !- Daylight Saving Time Indicator
    ASHRAEClearSky,          !- Solar Model Indicator
    ,                        !- Beam Solar Day Schedule Name
    ,                        !- Diffuse Solar Day Schedule Name
    ,                        !- ASHRAE Clear Sky Optical Depth for Beam Irradiance (taub) {dimensionless}
    ,                        !- ASHRAE Clear Sky Optical Depth for Diffuse Irradiance (taud) {dimensionless}
    0.98;                    !- Sky Clearness

SizingPeriod:DesignDay,
    Summer Design Day in Sans titre (01-01:31-12) Aou,  !- Name
    8,                       !- Month
    15,                      !- Day of Month
    SummerDesignDay,         !- Day Type
    35.9,                    !- Maximum Dry-Bulb Temperature {C}
    14.2,                    !- Daily Dry-Bulb Temperature Range {deltaC}
    ,                        !- Dry-Bulb Temperature Range Modifier Type
    ,                        !- Dry-Bulb Temperature Range Modifier Day Schedule Name
    WetBulb,                 !- Humidity Condition Type
    21.6,                    !- Wetbulb or DewPoint at Maximum Dry-Bulb {C}
    ,                        !- Humidity Condition Day Schedule Name
    ,                        !- Humidity Ratio at Maximum Dry-Bulb {kgWater/kgDryAir}
    ,                        !- Enthalpy at Maximum Dry-Bulb {J/kg}
    ,                        !- Daily Wet-Bulb Temperature Range {deltaC}
    100248.5,                !- Barometric Pressure {Pa}
    0,                       !- Wind Speed {m/s}
    0,                       !- Wind Direction {deg}
    No,                      !- Rain Indicator
    No,                      !- Snow Indicator
    Yes,                     !- Daylight Saving Time Indicator
    ASHRAEClearSky,          !- Solar Model Indicator
    ,                        !- Beam Solar Day Schedule Name
    ,                        !- Diffuse Solar Day Schedule Name
    ,                        !- ASHRAE Clear Sky Optical Depth for Beam Irradiance (taub) {dimensionless}
    ,                        !- ASHRAE Clear Sky Optical Depth for Diffuse Irradiance (taud) {dimensionless}
    0.98;                    !- Sky Clearness

SizingPeriod:DesignDay,
    Summer Design Day in Sans titre (01-01:31-12) Sep,  !- Name
    9,                       !- Month
    15,                      !- Day of Month
    SummerDesignDay,         !- Day Type
    28.8,                    !- Maximum Dry-Bulb Temperature {C}
    12.4,                    !- Daily Dry-Bulb Temperature Range {deltaC}
    ,                        !- Dry-Bulb Temperature Range Modifier Type
    ,                        !- Dry-Bulb Temperature Range Modifier Day Schedule Name
    WetBulb,                 !- Humidity Condition Type
    19.1,                    !- Wetbulb or DewPoint at Maximum Dry-Bulb {C}
    ,                        !- Humidity Condition Day Schedule Name
    ,                        !- Humidity Ratio at Maximum Dry-Bulb {kgWater/kgDryAir}
    ,                        !- Enthalpy at Maximum Dry-Bulb {J/kg}
    ,                        !- Daily Wet-Bulb Temperature Range {deltaC}
    100248.5,                !- Barometric Pressure {Pa}
    0,                       !- Wind Speed {m/s}
    0,                       !- Wind Direction {deg}
    No,                      !- Rain Indicator
    No,                      !- Snow Indicator
    Yes,                     !- Daylight Saving Time Indicator
    ASHRAEClearSky,          !- Solar Model Indicator
    ,                        !- Beam Solar Day Schedule Name
    ,                        !- Diffuse Solar Day Schedule Name
    ,                        !- ASHRAE Clear Sky Optical Depth for Beam Irradiance (taub) {dimensionless}
    ,                        !- ASHRAE Clear Sky Optical Depth for Diffuse Irradiance (taud) {dimensionless}
    0.98;                    !- Sky Clearness

SizingPeriod:DesignDay,
    Winter Design Day in Sans titre (01-01:31-12),  !- Name
    1,                       !- Month
    15,                      !- Day of Month
    WinterDesignDay,         !- Day Type
    -5.4,                    !- Maximum Dry-Bulb Temperature {C}
    0,                       !- Daily Dry-Bulb Temperature Range {deltaC}
    ,                        !- Dry-Bulb Temperature Range Modifier Type
    ,                        !- Dry-Bulb Temperature Range Modifier Day Schedule Name
    WetBulb,                 !- Humidity Condition Type
    -5.4,                    !- Wetbulb or DewPoint at Maximum Dry-Bulb {C}
    ,                        !- Humidity Condition Day Schedule Name
    ,                        !- Humidity Ratio at Maximum Dry-Bulb {kgWater/kgDryAir}
    ,                        !- Enthalpy at Maximum Dry-Bulb {J/kg}
    ,                        !- Daily Wet-Bulb Temperature Range {deltaC}
    100248.5,                !- Barometric Pressure {Pa}
    2.8,                     !- Wind Speed {m/s}
    60,                      !- Wind Direction {deg}
    No,                      !- Rain Indicator
    No,                      !- Snow Indicator
    No,                      !- Daylight Saving Time Indicator
    ,                        !- Solar Model Indicator
    ,                        !- Beam Solar Day Schedule Name
    ,                        !- Diffuse Solar Day Schedule Name
    ,                        !- ASHRAE Clear Sky Optical Depth for Beam Irradiance (taub) {dimensionless}
    ,                        !- ASHRAE Clear Sky Optical Depth for Diffuse Irradiance (taud) {dimensionless}
    0;                       !- Sky Clearness


!-   ===========  ALL OBJECTS IN CLASS: RUNPERIOD ===========

RunPeriod,
    Sans titre (01-01:31-12),!- Name
    1,                       !- Begin Month
    1,                       !- Begin Day of Month
    2002,                    !- Begin Year
    12,                      !- End Month
    31,                      !- End Day of Month
    2002,                    !- End Year
    ,                        !- Day of Week for Start Day
    No,                      !- Use Weather File Holidays and Special Days
    No,                      !- Use Weather File Daylight Saving Period
    Yes,                     !- Apply Weekend Holiday Rule
    Yes,                     !- Use Weather File Rain Indicators
    Yes,                     !- Use Weather File Snow Indicators
    No;                      !- Treat Weather as Actual


!-   ===========  ALL OBJECTS IN CLASS: RUNPERIODCONTROL:SPECIALDAYS ===========

RunPeriodControl:SpecialDays,
    New Years Day,           !- Name
    1 Jan,                   !- Start Date
    1,                       !- Duration {days}
    Holiday;                 !- Special Day Type

RunPeriodControl:SpecialDays,
    Christmas Day,           !- Name
    25 Dec,                  !- Start Date
    1,                       !- Duration {days}
    Holiday;                 !- Special Day Type

RunPeriodControl:SpecialDays,
    Boxing Day,              !- Name
    26 Dec,                  !- Start Date
    1,                       !- Duration {days}
    Holiday;                 !- Special Day Type

RunPeriodControl:SpecialDays,
    Easter Monday,           !- Name
    2nd Monday in April,     !- Start Date
    1,                       !- Duration {days}
    Holiday;                 !- Special Day Type

RunPeriodControl:SpecialDays,
    Easter Sunday,           !- Name
    1st Sunday in April,     !- Start Date
    1,                       !- Duration {days}
    Holiday;                 !- Special Day Type


!-   ===========  ALL OBJECTS IN CLASS: RUNPERIODCONTROL:DAYLIGHTSAVINGTIME ===========

RunPeriodControl:DaylightSavingTime,
    Last Sunday in March,    !- Start Date
    Last Sunday in October;  !- End Date


!-   ===========  ALL OBJECTS IN CLASS: SITE:GROUNDTEMPERATURE:BUILDINGSURFACE ===========

Site:GroundTemperature:BuildingSurface,
    18,                      !- January Ground Temperature {C}
    18,                      !- February Ground Temperature {C}
    18,                      !- March Ground Temperature {C}
    18,                      !- April Ground Temperature {C}
    18,                      !- May Ground Temperature {C}
    18,                      !- June Ground Temperature {C}
    18,                      !- July Ground Temperature {C}
    18,                      !- August Ground Temperature {C}
    18,                      !- September Ground Temperature {C}
    18,                      !- October Ground Temperature {C}
    18,                      !- November Ground Temperature {C}
    18;                      !- December Ground Temperature {C}


!-   ===========  ALL OBJECTS IN CLASS: SITE:GROUNDTEMPERATURE:FCFACTORMETHOD ===========

Site:GroundTemperature:FCfactorMethod,
    3.98,                    !- January Ground Temperature {C}
    5.32,                    !- February Ground Temperature {C}
    7.94,                    !- March Ground Temperature {C}
    10.41,                   !- April Ground Temperature {C}
    15.09,                   !- May Ground Temperature {C}
    17.56,                   !- June Ground Temperature {C}
    18.24,                   !- July Ground Temperature {C}
    16.99,                   !- August Ground Temperature {C}
    14.10,                   !- September Ground Temperature {C}
    10.50,                   !- October Ground Temperature {C}
    6.96,                    !- November Ground Temperature {C}
    4.62;                    !- December Ground Temperature {C}


!-   ===========  ALL OBJECTS IN CLASS: SITE:GROUNDTEMPERATURE:SHALLOW ===========

Site:GroundTemperature:Shallow,
    14,                      !- January Surface Ground Temperature {C}
    14,                      !- February Surface Ground Temperature {C}
    14,                      !- March Surface Ground Temperature {C}
    14,                      !- April Surface Ground Temperature {C}
    14,                      !- May Surface Ground Temperature {C}
    14,                      !- June Surface Ground Temperature {C}
    14,                      !- July Surface Ground Temperature {C}
    14,                      !- August Surface Ground Temperature {C}
    14,                      !- September Surface Ground Temperature {C}
    14,                      !- October Surface Ground Temperature {C}
    14,                      !- November Surface Ground Temperature {C}
    14;                      !- December Surface Ground Temperature {C}


!-   ===========  ALL OBJECTS IN CLASS: SITE:GROUNDTEMPERATURE:DEEP ===========

Site:GroundTemperature:Deep,
    14,                      !- January Deep Ground Temperature {C}
    14,                      !- February Deep Ground Temperature {C}
    14,                      !- March Deep Ground Temperature {C}
    14,                      !- April Deep Ground Temperature {C}
    14,                      !- May Deep Ground Temperature {C}
    14,                      !- June Deep Ground Temperature {C}
    14,                      !- July Deep Ground Temperature {C}
    14,                      !- August Deep Ground Temperature {C}
    14,                      !- September Deep Ground Temperature {C}
    14,                      !- October Deep Ground Temperature {C}
    14,                      !- November Deep Ground Temperature {C}
    14;                      !- December Deep Ground Temperature {C}


!-   ===========  ALL OBJECTS IN CLASS: SITE:GROUNDREFLECTANCE ===========

Site:GroundReflectance,
    0.2,                     !- January Ground Reflectance {dimensionless}
    0.2,                     !- February Ground Reflectance {dimensionless}
    0.2,                     !- March Ground Reflectance {dimensionless}
    0.2,                     !- April Ground Reflectance {dimensionless}
    0.2,                     !- May Ground Reflectance {dimensionless}
    0.2,                     !- June Ground Reflectance {dimensionless}
    0.2,                     !- July Ground Reflectance {dimensionless}
    0.2,                     !- August Ground Reflectance {dimensionless}
    0.2,                     !- September Ground Reflectance {dimensionless}
    0.2,                     !- October Ground Reflectance {dimensionless}
    0.2,                     !- November Ground Reflectance {dimensionless}
    0.2;                     !- December Ground Reflectance {dimensionless}


!-   ===========  ALL OBJECTS IN CLASS: SITE:GROUNDREFLECTANCE:SNOWMODIFIER ===========

Site:GroundReflectance:SnowModifier,
    2.0,                     !- Ground Reflected Solar Modifier
    2.0;                     !- Daylighting Ground Reflected Solar Modifier


!-   ===========  ALL OBJECTS IN CLASS: SCHEDULETYPELIMITS ===========

! Not limited
ScheduleTypeLimits,
    Any Number;              !- Name

ScheduleTypeLimits,
    Fraction,                !- Name
    0.0,                     !- Lower Limit Value
    1.0,                     !- Upper Limit Value
    CONTINUOUS;              !- Numeric Type

ScheduleTypeLimits,
    Temperature,             !- Name
    -60,                     !- Lower Limit Value
    200,                     !- Upper Limit Value
    CONTINUOUS;              !- Numeric Type

ScheduleTypeLimits,
    Control Type,            !- Name
    0,                       !- Lower Limit Value
    4,                       !- Upper Limit Value
    DISCRETE;                !- Numeric Type

ScheduleTypeLimits,
    On/Off,                  !- Name
    0,                       !- Lower Limit Value
    1,                       !- Upper Limit Value
    DISCRETE;                !- Numeric Type


!-   ===========  ALL OBJECTS IN CLASS: SCHEDULE:DAY:HOURLY ===========

! off heating day
Schedule:Day:Hourly,
    0,                       !- Name
    Any Number,              !- Schedule Type Limits Name
    0,                       !- Hour 1
    0,                       !- Hour 2
    0,                       !- Hour 3
    0,                       !- Hour 4
    0,                       !- Hour 5
    0,                       !- Hour 6
    0,                       !- Hour 7
    0,                       !- Hour 8
    0,                       !- Hour 9
    0,                       !- Hour 10
    0,                       !- Hour 11
    0,                       !- Hour 12
    0,                       !- Hour 13
    0,                       !- Hour 14
    0,                       !- Hour 15
    0,                       !- Hour 16
    0,                       !- Hour 17
    0,                       !- Hour 18
    0,                       !- Hour 19
    0,                       !- Hour 20
    0,                       !- Hour 21
    0,                       !- Hour 22
    0,                       !- Hour 23
    0;                       !- Hour 24

! off cooling day
Schedule:Day:Hourly,
    50,                      !- Name
    Any Number,              !- Schedule Type Limits Name
    50,                      !- Hour 1
    50,                      !- Hour 2
    50,                      !- Hour 3
    50,                      !- Hour 4
    50,                      !- Hour 5
    50,                      !- Hour 6
    50,                      !- Hour 7
    50,                      !- Hour 8
    50,                      !- Hour 9
    50,                      !- Hour 10
    50,                      !- Hour 11
    50,                      !- Hour 12
    50,                      !- Hour 13
    50,                      !- Hour 14
    50,                      !- Hour 15
    50,                      !- Hour 16
    50,                      !- Hour 17
    50,                      !- Hour 18
    50,                      !- Hour 19
    50,                      !- Hour 20
    50,                      !- Hour 21
    50,                      !- Hour 22
    50,                      !- Hour 23
    50;                      !- Hour 24

! used in seasonal schedules
Schedule:Day:Hourly,
    Off,                     !- Name
    Fraction,                !- Schedule Type Limits Name
    0,                       !- Hour 1
    0,                       !- Hour 2
    0,                       !- Hour 3
    0,                       !- Hour 4
    0,                       !- Hour 5
    0,                       !- Hour 6
    0,                       !- Hour 7
    0,                       !- Hour 8
    0,                       !- Hour 9
    0,                       !- Hour 10
    0,                       !- Hour 11
    0,                       !- Hour 12
    0,                       !- Hour 13
    0,                       !- Hour 14
    0,                       !- Hour 15
    0,                       !- Hour 16
    0,                       !- Hour 17
    0,                       !- Hour 18
    0,                       !- Hour 19
    0,                       !- Hour 20
    0,                       !- Hour 21
    0,                       !- Hour 22
    0,                       !- Hour 23
    0;                       !- Hour 24

! -------------------- Control type schedules (for heating & cooling) ----------------------
Schedule:Day:Hourly,
    Summer Control Type Day Sch,  !- Name
    Control Type,            !- Schedule Type Limits Name
    4,                       !- Hour 1
    4,                       !- Hour 2
    4,                       !- Hour 3
    4,                       !- Hour 4
    4,                       !- Hour 5
    4,                       !- Hour 6
    4,                       !- Hour 7
    4,                       !- Hour 8
    4,                       !- Hour 9
    4,                       !- Hour 10
    4,                       !- Hour 11
    4,                       !- Hour 12
    4,                       !- Hour 13
    4,                       !- Hour 14
    4,                       !- Hour 15
    4,                       !- Hour 16
    4,                       !- Hour 17
    4,                       !- Hour 18
    4,                       !- Hour 19
    4,                       !- Hour 20
    4,                       !- Hour 21
    4,                       !- Hour 22
    4,                       !- Hour 23
    4;                       !- Hour 24

Schedule:Day:Hourly,
    Winter Control Type Day Sch,  !- Name
    Control Type,            !- Schedule Type Limits Name
    4,                       !- Hour 1
    4,                       !- Hour 2
    4,                       !- Hour 3
    4,                       !- Hour 4
    4,                       !- Hour 5
    4,                       !- Hour 6
    4,                       !- Hour 7
    4,                       !- Hour 8
    4,                       !- Hour 9
    4,                       !- Hour 10
    4,                       !- Hour 11
    4,                       !- Hour 12
    4,                       !- Hour 13
    4,                       !- Hour 14
    4,                       !- Hour 15
    4,                       !- Hour 16
    4,                       !- Hour 17
    4,                       !- Hour 18
    4,                       !- Hour 19
    4,                       !- Hour 20
    4,                       !- Hour 21
    4,                       !- Hour 22
    4,                       !- Hour 23
    4;                       !- Hour 24

Schedule:Day:Hourly,
    Summer Control Type Day Sch - cool,  !- Name
    Control Type,            !- Schedule Type Limits Name
    2,                       !- Hour 1
    2,                       !- Hour 2
    2,                       !- Hour 3
    2,                       !- Hour 4
    2,                       !- Hour 5
    2,                       !- Hour 6
    2,                       !- Hour 7
    2,                       !- Hour 8
    2,                       !- Hour 9
    2,                       !- Hour 10
    2,                       !- Hour 11
    2,                       !- Hour 12
    2,                       !- Hour 13
    2,                       !- Hour 14
    2,                       !- Hour 15
    2,                       !- Hour 16
    2,                       !- Hour 17
    2,                       !- Hour 18
    2,                       !- Hour 19
    2,                       !- Hour 20
    2,                       !- Hour 21
    2,                       !- Hour 22
    2,                       !- Hour 23
    2;                       !- Hour 24

Schedule:Day:Hourly,
    Winter Control Type Day Sch - heat,  !- Name
    Control Type,            !- Schedule Type Limits Name
    1,                       !- Hour 1
    1,                       !- Hour 2
    1,                       !- Hour 3
    1,                       !- Hour 4
    1,                       !- Hour 5
    1,                       !- Hour 6
    1,                       !- Hour 7
    1,                       !- Hour 8
    1,                       !- Hour 9
    1,                       !- Hour 10
    1,                       !- Hour 11
    1,                       !- Hour 12
    1,                       !- Hour 13
    1,                       !- Hour 14
    1,                       !- Hour 15
    1,                       !- Hour 16
    1,                       !- Hour 17
    1,                       !- Hour 18
    1,                       !- Hour 19
    1,                       !- Hour 20
    1,                       !- Hour 21
    1,                       !- Hour 22
    1,                       !- Hour 23
    1;                       !- Hour 24


!-   ===========  ALL OBJECTS IN CLASS: SCHEDULE:DAY:INTERVAL ===========

! Profile: On
Schedule:Day:Interval,
    12 ,                     !- Name
    Any number,              !- Schedule Type Limits Name
    No,                      !- Interpolate to Timestep
    24:00,                   !- Time 1 {hh:mm}
    1;                       !- Value Until Time 1

! Profile: Domestic, family weekend: 7:00 - 23:00
Schedule:Day:Interval,
    29 ,                     !- Name
    Any number,              !- Schedule Type Limits Name
    No,                      !- Interpolate to Timestep
    7:00,                    !- Time 1 {hh:mm}
    0,                       !- Value Until Time 1
    23:00,                   !- Time 2 {hh:mm}
    1,                       !- Value Until Time 2
    24:00,                   !- Time 3 {hh:mm}
    0;                       !- Value Until Time 3

! Modified profile: Domestic, family weekend: 7:00 - 23:00
Schedule:Day:Interval,
    29_-50_17_22 ,           !- Name
    Any number,              !- Schedule Type Limits Name
    No,                      !- Interpolate to Timestep
    7:00,                    !- Time 1 {hh:mm}
    17,                      !- Value Until Time 1
    23:00,                   !- Time 2 {hh:mm}
    22,                      !- Value Until Time 2
    24:00,                   !- Time 3 {hh:mm}
    17;                      !- Value Until Time 3

! Modified profile: On
Schedule:Day:Interval,
    12_-50_17_22 ,           !- Name
    Any number,              !- Schedule Type Limits Name
    No,                      !- Interpolate to Timestep
    24:00,                   !- Time 1 {hh:mm}